tse_to_opendss/examples/Benchmark Systems/IEEE/IEEE 13 Bus - Distribution/ieee_13bus Target files/dss/data/lines.dss
! Automatically generated by the Typhoon HIL TSE to OpenDSS converter.

new "LINE.LINE_632633" Bus1="BUS_632.1.2.3" Bus2="BUS_633.1.2.3" LineCode=CONFIG_602 Length=0.152
new "LINE.LINE_684611" phases=1 Bus1="BUS_684.3" Bus2="BUS_611.3" LineCode=CONFIG_605 Length=0.091
new "LINE.LINE_671684" phases=2 Bus1="BUS_671.1.3" Bus2="BUS_684.1.3" LineCode=CONFIG_604 Length=0.091
new "LINE.SWITCH" Bus1="BUS_671.1.2.3" Bus2="BUS_692.1.2.3" Switch=true
Close "LINE.SWITCH"
new "LINE.LINE_650632" Bus1="BUS_REG.1.2.3" Bus2="BUS_632.1.2.3" LineCode=CONFIG_601 Length=0.61
new "LINE.LINE_684652" phases=1 Bus1="BUS_684.1" Bus2="BUS_652.1" LineCode=CONFIG_607 Length=0.244
new "LINE.LINE_671680" Bus1="BUS_671.1.2.3" Bus2="BUS_680.1.2.3" LineCode=CONFIG_601 Length=0.305
new "LINE.LINE_645646" phases=2 Bus1="BUS_645.2.3" Bus2="BUS_646.2.3" LineCode=CONFIG_603 Length=0.091
new "LINE.LINE_632645" phases=2 Bus1="BUS_632.2.3" Bus2="BUS_645.2.3" LineCode=CONFIG_603 Length=0.152
new "LINE.LINE_692675" Bus1="BUS_692.1.2.3" Bus2="BUS_675.1.2.3" LineCode=CONFIG_606 Length=0.152
new "LINE.LINE_632671" Bus1="BUS_632.1.2.3" Bus2="BUS_671.1.2.3" LineCode=CONFIG_601 Length=0.61
